/*--------------------------------*- C++ -*----------------------------------*\
| =========                 |                                                 |
| \\      /  F ield         | OpenFOAM: The Open Source CFD Toolbox           |
|  \\    /   O peration     | Version:  2206                                  |
|   \\  /    A nd           | Website:  www.openfoam.com                      |
|    \\/     M anipulation  |                                                 |
\*---------------------------------------------------------------------------*/
FoamFile
{
    version     2.0;
    format      ascii;
    arch        "LSB;label=32;scalar=64";
    class       featureEdgeMesh;
    location    "constant/triSurface";
    object      pipe0904.eMesh;
}
// * * * * * * * * * * * * * * * * * * * * * * * * * * * * * * * * * * * * * //


// points:

101
(
(0.293893 -0.404509 -1)
(0.154509 -0.475528 -1)
(-0.475528 0.154509 -1)
(-0.404509 0.293893 -1)
(-0.293893 -0.404509 -1)
(-0.404509 -0.293893 -1)
(0.475528 0.154509 -1)
(0.5 0 -1)
(-9.68586e-16 0.5 -1)
(0.154509 0.475528 -1)
(2.1286e-15 -0.5 -1)
(-0.293893 0.404509 -1)
(0.404509 -0.293893 -1)
(0.404509 0.293893 -1)
(-0.5 -1.93717e-15 -1)
(-0.475528 -0.154509 -1)
(-0.154509 0.475528 -1)
(0.475528 -0.154509 -1)
(0.293893 0.404509 -1)
(-0.154509 -0.475528 -1)
(-0.9 -0.0309017 -0.495106)
(-0.9 -0.0587785 -0.480902)
(-0.9 -0.0809017 -0.458779)
(-0.9 -0.0809017 -0.341221)
(-0.9 -0.0587785 -0.319098)
(-0.9 0.0309017 -0.495106)
(-0.9 3.87434e-16 -0.5)
(-0.9 0.0809017 -0.458779)
(-0.9 0.0587785 -0.480902)
(-0.9 -0.1 -0.4)
(-0.9 -0.0951056 -0.369098)
(-0.9 -0.0951056 -0.430902)
(-0.9 0.0809017 -0.341221)
(-0.9 0.0951056 -0.369098)
(-0.9 0.0951056 -0.430902)
(-0.9 0.0587785 -0.319098)
(-0.9 -0.0309017 -0.304894)
(-0.9 0.1 -0.4)
(-0.9 2.44921e-17 -0.3)
(-0.9 0.0309017 -0.304894)
(0.242705 0.176336 3)
(0.176336 0.242705 3)
(-0.3 -1.1623e-15 3)
(-0.285317 -0.0927051 3)
(0.242705 -0.176336 3)
(0.285317 -0.0927051 3)
(-0.0927051 -0.285317 3)
(1.27716e-15 -0.3 3)
(-0.0927051 0.285317 3)
(-0.176336 0.242705 3)
(-0.285317 0.0927051 3)
(-0.242705 0.176336 3)
(0.3 0 3)
(-0.176336 -0.242705 3)
(0.0927051 -0.285317 3)
(-5.81151e-16 0.3 3)
(-0.242705 -0.176336 3)
(0.285317 0.0927051 3)
(0.176336 -0.242705 3)
(0.0927051 0.285317 3)
(-1.93717e-16 0.1 1)
(-0.0309017 0.0951056 1)
(0.0809017 0.0587785 1)
(0.0587785 0.0809017 1)
(0.0587785 -0.0809017 1)
(0.0809017 -0.0587785 1)
(0.0309017 0.0951056 1)
(-0.0809017 0.0587785 1)
(-0.0951056 0.0309017 1)
(-0.1 -4.31843e-16 1)
(-0.0951056 -0.0309017 1)
(0.0309017 -0.0951056 1)
(0.0951056 -0.0309017 1)
(-0.0809017 -0.0587785 1)
(-0.0587785 -0.0809017 1)
(-0.0309017 -0.0951056 1)
(4.2572e-16 -0.1 1)
(-0.0587785 0.0809017 1)
(0.1 0 1)
(0.0951056 0.0309017 1)
(-0.489954 0.099726 -0.392602)
(-0.491243 0.0931694 -0.363676)
(-0.491243 -0.0931695 -0.363676)
(-0.489954 -0.099726 -0.392602)
(-0.493843 0.0782245 -0.337703)
(-0.496825 0.0562579 -0.317326)
(-0.496825 -0.0562579 -0.317326)
(-0.493843 -0.0782245 -0.337703)
(-0.499142 0.0292791 -0.304382)
(-0.5 2.44921e-17 -0.3)
(-0.499142 -0.0292791 -0.304382)
(-0.498128 -0.0432243 -0.490176)
(-0.499782 -0.0147742 -0.498903)
(-0.499782 0.0147742 -0.498903)
(-0.498128 0.0432243 -0.490176)
(-0.49243 0.0866784 -0.449868)
(-0.490395 0.0975356 -0.422063)
(-0.490395 -0.0975356 -0.422063)
(-0.49243 -0.0866784 -0.449868)
(-0.495353 -0.0680102 -0.473312)
(-0.495353 0.0680101 -0.473312)
)


// edges:

101
(
(0 1)
(2 3)
(4 5)
(6 7)
(8 9)
(1 10)
(3 11)
(12 0)
(13 6)
(14 2)
(5 15)
(16 8)
(7 17)
(9 18)
(19 4)
(17 12)
(15 14)
(18 13)
(11 16)
(10 19)
(20 21)
(21 22)
(23 24)
(25 26)
(27 28)
(29 30)
(22 31)
(26 20)
(32 33)
(34 27)
(28 25)
(31 29)
(35 32)
(24 36)
(30 23)
(33 37)
(38 39)
(37 34)
(36 38)
(39 35)
(40 41)
(42 43)
(44 45)
(46 47)
(48 49)
(50 42)
(49 51)
(45 52)
(53 46)
(47 54)
(55 48)
(43 56)
(57 40)
(58 44)
(41 59)
(51 50)
(54 58)
(52 57)
(56 53)
(59 55)
(60 61)
(62 63)
(64 65)
(66 60)
(67 68)
(69 70)
(71 64)
(65 72)
(73 74)
(75 76)
(61 77)
(72 78)
(78 79)
(63 66)
(76 71)
(68 69)
(74 75)
(70 73)
(79 62)
(77 67)
(80 81)
(82 83)
(84 85)
(86 87)
(88 89)
(89 90)
(91 92)
(93 94)
(95 96)
(97 98)
(99 91)
(94 100)
(96 80)
(83 97)
(87 82)
(81 84)
(85 88)
(90 86)
(92 93)
(98 99)
(100 95)
)

// * * * * * * * * * * * * * * * * * * * * * * * * * * * * * * * * * * * * * //


// ************************************************************************* //
