/*--------------------------------*- C++ -*----------------------------------*\
| =========                 |                                                 |
| \\      /  F ield         | OpenFOAM: The Open Source CFD Toolbox           |
|  \\    /   O peration     | Version:  2206                                  |
|   \\  /    A nd           | Website:  www.openfoam.com                      |
|    \\/     M anipulation  |                                                 |
\*---------------------------------------------------------------------------*/
FoamFile
{
    version     2.0;
    format      ascii;
    arch        "LSB;label=32;scalar=64";
    class       extendedFeatureEdgeMesh;
    location    "constant/extendedFeatureEdgeMesh";
    object      pipe0904.extendedFeatureEdgeMesh;
}
// * * * * * * * * * * * * * * * * * * * * * * * * * * * * * * * * * * * * * //

// points

101
(
(0.293893 -0.404509 -1)
(0.154509 -0.475528 -1)
(-0.475528 0.154509 -1)
(-0.404509 0.293893 -1)
(-0.293893 -0.404509 -1)
(-0.404509 -0.293893 -1)
(0.475528 0.154509 -1)
(0.5 0 -1)
(-9.68586e-16 0.5 -1)
(0.154509 0.475528 -1)
(2.1286e-15 -0.5 -1)
(-0.293893 0.404509 -1)
(0.404509 -0.293893 -1)
(0.404509 0.293893 -1)
(-0.5 -1.93717e-15 -1)
(-0.475528 -0.154509 -1)
(-0.154509 0.475528 -1)
(0.475528 -0.154509 -1)
(0.293893 0.404509 -1)
(-0.154509 -0.475528 -1)
(-0.9 -0.0309017 -0.495106)
(-0.9 -0.0587785 -0.480902)
(-0.9 -0.0809017 -0.458779)
(-0.9 -0.0809017 -0.341221)
(-0.9 -0.0587785 -0.319098)
(-0.9 0.0309017 -0.495106)
(-0.9 3.87434e-16 -0.5)
(-0.9 0.0809017 -0.458779)
(-0.9 0.0587785 -0.480902)
(-0.9 -0.1 -0.4)
(-0.9 -0.0951056 -0.369098)
(-0.9 -0.0951056 -0.430902)
(-0.9 0.0809017 -0.341221)
(-0.9 0.0951056 -0.369098)
(-0.9 0.0951056 -0.430902)
(-0.9 0.0587785 -0.319098)
(-0.9 -0.0309017 -0.304894)
(-0.9 0.1 -0.4)
(-0.9 2.44921e-17 -0.3)
(-0.9 0.0309017 -0.304894)
(0.242705 0.176336 3)
(0.176336 0.242705 3)
(-0.3 -1.1623e-15 3)
(-0.285317 -0.0927051 3)
(0.242705 -0.176336 3)
(0.285317 -0.0927051 3)
(-0.0927051 -0.285317 3)
(1.27716e-15 -0.3 3)
(-0.0927051 0.285317 3)
(-0.176336 0.242705 3)
(-0.285317 0.0927051 3)
(-0.242705 0.176336 3)
(0.3 0 3)
(-0.176336 -0.242705 3)
(0.0927051 -0.285317 3)
(-5.81151e-16 0.3 3)
(-0.242705 -0.176336 3)
(0.285317 0.0927051 3)
(0.176336 -0.242705 3)
(0.0927051 0.285317 3)
(-1.93717e-16 0.1 1)
(-0.0309017 0.0951056 1)
(0.0809017 0.0587785 1)
(0.0587785 0.0809017 1)
(0.0587785 -0.0809017 1)
(0.0809017 -0.0587785 1)
(0.0309017 0.0951056 1)
(-0.0809017 0.0587785 1)
(-0.0951056 0.0309017 1)
(-0.1 -4.31843e-16 1)
(-0.0951056 -0.0309017 1)
(0.0309017 -0.0951056 1)
(0.0951056 -0.0309017 1)
(-0.0809017 -0.0587785 1)
(-0.0587785 -0.0809017 1)
(-0.0309017 -0.0951056 1)
(4.2572e-16 -0.1 1)
(-0.0587785 0.0809017 1)
(0.1 0 1)
(0.0951056 0.0309017 1)
(-0.489954 0.099726 -0.392602)
(-0.491243 0.0931694 -0.363676)
(-0.491243 -0.0931695 -0.363676)
(-0.489954 -0.099726 -0.392602)
(-0.493843 0.0782245 -0.337703)
(-0.496825 0.0562579 -0.317326)
(-0.496825 -0.0562579 -0.317326)
(-0.493843 -0.0782245 -0.337703)
(-0.499142 0.0292791 -0.304382)
(-0.5 2.44921e-17 -0.3)
(-0.499142 -0.0292791 -0.304382)
(-0.498128 -0.0432243 -0.490176)
(-0.499782 -0.0147742 -0.498903)
(-0.499782 0.0147742 -0.498903)
(-0.498128 0.0432243 -0.490176)
(-0.49243 0.0866784 -0.449868)
(-0.490395 0.0975356 -0.422063)
(-0.490395 -0.0975356 -0.422063)
(-0.49243 -0.0866784 -0.449868)
(-0.495353 -0.0680102 -0.473312)
(-0.495353 0.0680101 -0.473312)
)

// edges

101
(
(0 1)
(2 3)
(4 5)
(6 7)
(8 9)
(1 10)
(3 11)
(12 0)
(13 6)
(14 2)
(5 15)
(16 8)
(7 17)
(9 18)
(19 4)
(17 12)
(15 14)
(18 13)
(11 16)
(10 19)
(20 21)
(21 22)
(23 24)
(25 26)
(27 28)
(29 30)
(22 31)
(26 20)
(32 33)
(34 27)
(28 25)
(31 29)
(35 32)
(24 36)
(30 23)
(33 37)
(38 39)
(37 34)
(36 38)
(39 35)
(40 41)
(42 43)
(44 45)
(46 47)
(48 49)
(50 42)
(49 51)
(45 52)
(53 46)
(47 54)
(55 48)
(43 56)
(57 40)
(58 44)
(41 59)
(51 50)
(54 58)
(52 57)
(56 53)
(59 55)
(60 61)
(62 63)
(64 65)
(66 60)
(67 68)
(69 70)
(71 64)
(65 72)
(73 74)
(75 76)
(61 77)
(72 78)
(78 79)
(63 66)
(76 71)
(68 69)
(74 75)
(70 73)
(79 62)
(77 67)
(80 81)
(82 83)
(84 85)
(86 87)
(88 89)
(89 90)
(91 92)
(93 94)
(95 96)
(97 98)
(99 91)
(94 100)
(96 80)
(83 97)
(87 82)
(81 84)
(85 88)
(90 86)
(92 93)
(98 99)
(100 95)
)

// concaveStart mixedStart nonFeatureStart
0 0 0
// internalStart flatStart openStart multipleStart
60 101 101 101
// normals

202
(
(-0 0 -1)
(0.453281 -0.889614 -0.0558865)
(0 0 -1)
(-0.889895 0.453424 -0.0499284)
(0 0 -1)
(-0.706653 -0.706653 -0.0358333)
(0 -0 -1)
(0.984041 0.155857 -0.0858634)
(0 0 -1)
(0.156328 0.987015 -0.0369254)
(-0 0 -1)
(0.156328 -0.987015 -0.0369255)
(0 0 -1)
(-0.706653 0.706653 -0.0358333)
(-0 0 -1)
(0.706551 -0.706551 -0.0396571)
(0 -0 -1)
(0.890433 0.453698 -0.0358688)
(0 0 -1)
(-0.987688 0.156434 3.21858e-08)
(0 0 -1)
(-0.889895 -0.453424 -0.0499286)
(0 -0 -1)
(-0.156351 0.98716 -0.0327054)
(0 0 -1)
(0.984041 -0.155857 -0.0858634)
(0 0 -1)
(0.453281 0.889614 -0.0558865)
(0 0 -1)
(-0.453619 -0.890277 -0.0404646)
(0 0 -1)
(0.890433 -0.453698 -0.0358687)
(0 0 -1)
(-0.987688 -0.156434 -3.21858e-08)
(0 -0 -1)
(0.706551 0.706551 -0.0396571)
(0 0 -1)
(-0.453619 0.890277 -0.0404647)
(0 0 -1)
(-0.156351 -0.98716 -0.0327054)
(-1 0 0)
(-0.04373 -0.453557 -0.890154)
(-1 0 0)
(-0.048527 -0.706273 -0.706274)
(-1 0 0)
(-0.0457346 -0.706367 0.706367)
(-1 -0 0)
(-0.043075 0.156289 -0.986772)
(-1 -0 0)
(-0.0536188 0.706089 -0.70609)
(-1 0 0)
(-0.0362981 -0.987037 0.156332)
(-1 0 0)
(-0.0397273 -0.890303 -0.453632)
(-1 0 0)
(-0.0428892 -0.15629 -0.98678)
(-1 0 -0)
(-0.0490418 0.889934 0.453444)
(-1 -0 0)
(-0.04423 0.890135 -0.453546)
(-1 -0 0)
(-0.0399205 0.453629 -0.890296)
(-1 0 0)
(-0.0461338 -0.986637 -0.156268)
(-1 0 -0)
(-0.0466543 0.706337 0.706337)
(-1 0 0)
(-0.0461199 -0.453507 0.890059)
(-1 0 0)
(-0.0490418 -0.889934 0.453444)
(-1 0 -0)
(-0.0315728 0.987196 0.156357)
(-1 0 0)
(-0.0389294 0.156316 0.98694)
(-1 -0 0)
(-0.0484059 0.98653 -0.156251)
(-1 0 0)
(-0.0351057 -0.156338 0.98708)
(-1 0 -0)
(-0.0457533 0.453515 0.890074)
(0 0 1)
(0.706771 0.706771 0.0308317)
(-0 -0 1)
(-0.985145 -0.156032 0.0717107)
(0 0 1)
(0.890807 -0.453889 0.0211552)
(0 -0 1)
(-0.156352 -0.987168 0.0324686)
(-0 0 1)
(-0.453338 0.889727 0.0535788)
(0 0 1)
(-0.986845 0.156301 0.0413227)
(-0 0 1)
(-0.706542 0.706542 0.0399702)
(0 0 1)
(0.984299 -0.155898 0.0827788)
(0 0 1)
(-0.453644 -0.890327 0.0390389)
(0 0 1)
(0.156297 -0.986821 0.041894)
(-0 0 1)
(-0.156352 0.987167 0.0324776)
(0 -0 1)
(-0.890087 -0.453522 0.0454164)
(0 0 1)
(0.89081 0.453891 0.0209768)
(0 0 1)
(0.706762 -0.706762 0.0312104)
(0 0 1)
(0.453389 0.889825 0.0514766)
(0 0 1)
(-0.890079 0.453518 0.0456153)
(0 0 1)
(0.453407 -0.889861 0.0506952)
(0 0 1)
(0.984711 0.155963 0.0775815)
(0 -0 1)
(-0.706683 -0.706683 0.0346121)
(0 0 1)
(0.156286 0.986749 0.0435915)
(-0.152388 0.962142 -0.225967)
(-0.14352 0.906151 0.397859)
(0.689304 0.689304 -0.222979)
(0.646303 0.646303 0.405689)
(0.688242 -0.688242 -0.229448)
(0.648144 -0.648144 0.399773)
(0.152729 0.964294 -0.216356)
(0.142901 0.902239 0.406872)
(-0.865405 0.440946 -0.237996)
(-0.813921 0.414714 0.406872)
(-0.959345 -0.151945 -0.237845)
(-0.902619 -0.142961 0.406007)
(0.441105 -0.865718 -0.236554)
(0.415528 -0.81552 0.402818)
(0.867931 -0.442233 -0.226112)
(0.814749 -0.415135 0.40478)
(-0.685951 -0.685951 -0.242783)
(-0.646294 -0.646294 0.405719)
(-0.151666 -0.957578 -0.245033)
(-0.143059 -0.903236 0.404597)
(-0.440133 0.863809 -0.245189)
(-0.41528 0.815032 0.404061)
(0.95824 -0.151771 -0.242366)
(0.910403 -0.144194 0.387781)
(0.95824 0.151771 -0.242366)
(0.905303 0.143386 0.399833)
(0.441191 0.865887 -0.235777)
(0.415632 0.815723 0.402301)
(0.151101 -0.954015 -0.25889)
(0.143311 -0.904829 0.400933)
(-0.954005 0.1511 -0.258928)
(-0.906552 0.143584 0.396923)
(-0.43844 -0.860487 -0.259485)
(-0.417391 -0.819177 0.393363)
(-0.860487 -0.43844 -0.259485)
(-0.816097 -0.415822 0.401345)
(0.860259 0.438324 -0.260436)
(0.806725 0.411047 0.42454)
(-0.681994 0.681994 -0.264136)
(-0.647963 0.647963 0.40036)
(-0.976403 0.215888 0.00542567)
(0.0714459 0.972078 0.223516)
(-0.976245 -0.216596 0.00559303)
(0.0714457 -0.972078 0.223516)
(-0.991109 0.13304 -0.0016185)
(0.0322136 0.677381 0.734926)
(-0.99111 -0.133031 -0.00162812)
(0.0322133 -0.677382 0.734926)
(-0.998051 0.0367919 0.0504061)
(0.0345441 0.146947 0.988541)
(-0.998051 -0.0367927 0.0504116)
(0.0423396 -0.14668 0.988278)
(-0.997611 -0.065085 -0.0231589)
(0.038638 -0.290985 -0.955947)
(-0.997611 0.065085 -0.0231589)
(0.045981 0.290503 -0.955769)
(-0.981019 0.193874 -0.00390372)
(0.0191513 0.930857 -0.364882)
(-0.981017 -0.193883 -0.00390759)
(0.0190524 -0.930861 -0.364877)
(-0.993915 -0.11014 0.00167969)
(0.0695953 -0.555825 -0.828381)
(-0.993915 0.11014 0.00167967)
(0.0658357 0.556258 -0.828398)
(-0.971149 0.238452 -0.00320044)
(0.0580168 0.995503 -0.0748803)
(-0.971105 -0.238632 -0.00321447)
(0.0579347 -0.995508 -0.0748793)
(-0.97818 -0.206696 0.0210045)
(0.0412435 -0.864225 0.501412)
(-0.978375 0.205821 0.0204812)
(0.0412491 0.864225 0.501412)
(-0.995986 0.0891889 0.00760815)
(0.0316615 0.430125 0.902214)
(-0.995988 -0.08917 0.0075683)
(0.0312831 -0.430156 0.902212)
(-0.999977 0 0.00679811)
(0.0634096 0 -0.997988)
(-0.983901 -0.177721 -0.0188255)
(0.0487596 -0.778373 -0.625906)
(-0.9839 0.177723 -0.0188277)
(0.0438989 0.778846 -0.625678)
)

// normal volume types

202
(
0
0
0
0
0
0
0
0
0
0
0
0
0
0
0
0
0
0
0
0
0
0
0
0
0
0
0
0
0
0
0
0
0
0
0
0
0
0
0
0
0
0
0
0
0
0
0
0
0
0
0
0
0
0
0
0
0
0
0
0
0
0
0
0
0
0
0
0
0
0
0
0
0
0
0
0
0
0
0
0
0
0
0
0
0
0
0
0
0
0
0
0
0
0
0
0
0
0
0
0
0
0
0
0
0
0
0
0
0
0
0
0
0
0
0
0
0
0
0
0
0
0
0
0
0
0
0
0
0
0
0
0
0
0
0
0
0
0
0
0
0
0
0
0
0
0
0
0
0
0
0
0
0
0
0
0
0
0
0
0
0
0
0
0
0
0
0
0
0
0
0
0
0
0
0
0
0
0
0
0
0
0
0
0
0
0
0
0
0
0
0
0
0
0
0
0
0
0
0
0
0
0
)

// normalDirections

101
(
2(1 -1)
2(1 -1)
2(1 -1)
2(1 -1)
2(1 -1)
2(1 -1)
2(1 -1)
2(1 -1)
2(1 -1)
2(1 -1)
2(1 -1)
2(1 -1)
2(1 -1)
2(1 -1)
2(1 -1)
2(1 -1)
2(1 -1)
2(1 -1)
2(1 -1)
2(1 -1)
2(1 -1)
2(1 -1)
2(1 -1)
2(1 -1)
2(1 -1)
2(1 -1)
2(1 -1)
2(1 -1)
2(1 -1)
2(1 -1)
2(1 -1)
2(1 -1)
2(1 -1)
2(1 -1)
2(1 -1)
2(1 -1)
2(1 -1)
2(1 -1)
2(1 -1)
2(1 -1)
2(1 -1)
2(1 -1)
2(1 -1)
2(1 -1)
2(1 -1)
2(1 -1)
2(1 -1)
2(1 -1)
2(1 -1)
2(1 -1)
2(1 -1)
2(1 -1)
2(1 -1)
2(1 -1)
2(1 -1)
2(1 -1)
2(1 -1)
2(1 -1)
2(1 -1)
2(1 -1)
2(1 -1)
2(1 -1)
2(1 -1)
2(1 -1)
2(1 -1)
2(1 -1)
2(1 -1)
2(1 -1)
2(1 -1)
2(1 -1)
2(1 -1)
2(1 -1)
2(1 -1)
2(1 -1)
2(1 -1)
2(1 -1)
2(1 -1)
2(1 -1)
2(1 -1)
2(1 -1)
2(1 -1)
2(1 -1)
2(1 -1)
2(1 -1)
2(1 -1)
2(1 -1)
2(1 -1)
2(1 -1)
2(1 -1)
2(1 -1)
2(1 -1)
2(1 -1)
2(1 -1)
2(1 -1)
2(1 -1)
2(1 -1)
2(1 -1)
2(1 -1)
2(1 -1)
2(1 -1)
2(1 -1)
)

// edgeNormals

101
(
2(0 1)
2(2 3)
2(4 5)
2(6 7)
2(8 9)
2(10 11)
2(12 13)
2(14 15)
2(16 17)
2(18 19)
2(20 21)
2(22 23)
2(24 25)
2(26 27)
2(28 29)
2(30 31)
2(32 33)
2(34 35)
2(36 37)
2(38 39)
2(40 41)
2(42 43)
2(44 45)
2(46 47)
2(48 49)
2(50 51)
2(52 53)
2(54 55)
2(56 57)
2(58 59)
2(60 61)
2(62 63)
2(64 65)
2(66 67)
2(68 69)
2(70 71)
2(72 73)
2(74 75)
2(76 77)
2(78 79)
2(80 81)
2(82 83)
2(84 85)
2(86 87)
2(88 89)
2(90 91)
2(92 93)
2(94 95)
2(96 97)
2(98 99)
2(100 101)
2(102 103)
2(104 105)
2(106 107)
2(108 109)
2(110 111)
2(112 113)
2(114 115)
2(116 117)
2(118 119)
2(120 121)
2(122 123)
2(124 125)
2(126 127)
2(128 129)
2(130 131)
2(132 133)
2(134 135)
2(136 137)
2(138 139)
2(140 141)
2(142 143)
2(144 145)
2(146 147)
2(148 149)
2(150 151)
2(152 153)
2(154 155)
2(156 157)
2(158 159)
2(160 161)
2(162 163)
2(164 165)
2(166 167)
2(168 169)
2(170 171)
2(172 173)
2(174 175)
2(176 177)
2(178 179)
2(180 181)
2(182 183)
2(184 185)
2(186 187)
2(188 189)
2(190 191)
2(192 193)
2(194 195)
2(196 197)
2(198 199)
2(200 201)
)

// featurePointNormals
0()
// featurePointEdges
0()
// regionEdges

60
(
0
1
2
3
4
5
6
7
8
9
10
11
12
13
14
15
16
17
18
19
20
21
22
23
24
25
26
27
28
29
30
31
32
33
34
35
36
37
38
39
40
41
42
43
44
45
46
47
48
49
50
51
52
53
54
55
56
57
58
59
)



// ************************************************************************* //
